test/fixtures/synthetic_v35_transformer_band_presence.raw
@!IC,SBASE,REV,XFRRAT,NXFRAT,BASFRQ
0,  100.00, 35,     0,     1, 60.00
Synthetic fictional v35 case for transformer control-band presence
T1: COD1=2 (reactive-flow control) with the winding line truncated before RMA1/RMI1/VMA1/VMI1. T2: COD1=1 with all four stated explicitly.
0 / END OF SYSTEM-WIDE DATA, BEGIN BUS DATA
@!   I,'NAME        ', BASKV, IDE,AREA,ZONE,OWNER, VM,        VA,    NVHI,   NVLO,   EVHI,   EVLO
     1,'BUSONE      ', 200.0000,3,   1,   1,   1,1.00000,   0.0000,1.10000,0.90000,1.10000,0.90000
     2,'BUSTWO      ', 200.0000,2,   1,   1,   1,1.00000,   0.0000,1.10000,0.90000,1.10000,0.90000
     3,'BUSTHREE    ', 138.0000,1,   1,   1,   1,1.00000,   0.0000,1.10000,0.90000,1.10000,0.90000
   201,'T1_HV       ', 100.0000,3,   1,   1,   1,1.00000,   0.0000,1.10000,0.90000,1.10000,0.90000
   202,'T1_LV       ',  20.0000,1,   1,   1,   1,1.00000,   0.0000,1.10000,0.90000,1.10000,0.90000
   203,'T2_HV       ', 100.0000,3,   1,   1,   1,1.00000,   0.0000,1.10000,0.90000,1.10000,0.90000
   204,'T2_LV       ',  25.0000,1,   1,   1,   1,1.00000,   0.0000,1.10000,0.90000,1.10000,0.90000
0 / END OF BUS DATA, BEGIN LOAD DATA
     3,'1 ',   1,   1,   1,    50.000,    10.000,     0.000,     0.000,     0.000,     0.000,   1,    1,  0,     0.000,     0.000,    0,'           V'
   202,'1 ',   1,   1,   1,     5.000,     1.000,     0.000,     0.000,     0.000,     0.000,   1,    1,  0,     0.000,     0.000,    0,'           V'
   204,'1 ',   1,   1,   1,     4.000,     0.800,     0.000,     0.000,     0.000,     0.000,   1,    1,  0,     0.000,     0.000,    0,'           V'
0 / END OF LOAD DATA, BEGIN FIXED SHUNT DATA
0 / END OF FIXED SHUNT DATA, BEGIN GENERATOR DATA
     1,'1 ',    80.000,     0.000,    80.000,   -80.000,1.00000,   0,   0,   100.000, 0.00000E+0, 1.00000E-1, 0.00000E+0, 0.00000E+0,1.00000,1,  100.0,   120.000,     0.000, 0,1,1.0000
     2,'1 ',    30.000,     0.000,    50.000,   -50.000,1.00000,   0,   0,   100.000, 0.00000E+0, 1.00000E-1, 0.00000E+0, 0.00000E+0,1.00000,1,  100.0,   120.000,     0.000, 0,1,1.0000
   201,'1 ',    10.000,     0.000,    20.000,   -20.000,1.00000,   0,   0,   100.000, 0.00000E+0, 1.00000E-1, 0.00000E+0, 0.00000E+0,1.00000,1,  100.0,   120.000,     0.000, 0,1,1.0000
   203,'1 ',    10.000,     0.000,    20.000,   -20.000,1.00000,   0,   0,   100.000, 0.00000E+0, 1.00000E-1, 0.00000E+0, 0.00000E+0,1.00000,1,  100.0,   120.000,     0.000, 0,1,1.0000
0 / END OF GENERATOR DATA, BEGIN BRANCH DATA
     1,     2,'1 ', 1.00000E-02, 1.00000E-01,0.02000,'BRANCH_1_2                              ', 500.00, 500.00, 500.00,   0.00,   0.00,   0.00,   0.00,   0.00,   0.00,   0.00,   0.00,   0.00, 0.00000, 0.00000, 0.00000, 0.00000,1,1,  1.00,   1,1.0000
     2,     3,'1 ', 1.00000E-02, 1.00000E-01,0.02000,'BRANCH_2_3                              ', 500.00, 500.00, 500.00,   0.00,   0.00,   0.00,   0.00,   0.00,   0.00,   0.00,   0.00,   0.00, 0.00000, 0.00000, 0.00000, 0.00000,1,1,  1.00,   1,1.0000
0 / END OF BRANCH DATA, BEGIN SYSTEM SWITCHING DEVICE DATA
0 / END OF SYSTEM SWITCHING DEVICE DATA, BEGIN TRANSFORMER DATA
201, 202, 0, '1 ', 2, 2, 1, 0.001, 0.002, 2, 'XFMR_T1     ', 1, 1, 1.0, 0, 1.0, 0, 1.0, 0, 1.0, '            '
0.01, 0.05, 50.0
105.0, 0.0, 0.0, 40.0, 0.0, 0.0, 0.0, 0.0, 0.0, 0.0, 0.0, 0.0, 0.0, 0.0, 0.0, 2, 202, 0
21.0, 0.0
203, 204, 0, '1 ', 3, 3, 2, 80000.0, 0.005, 2, 'XFMR_T2     ', 1, 1, 1.0, 0, 1.0, 0, 1.0, 0, 1.0, '            '
800.0, 0.05, 80.0
1.0, 0.0, 0.0, 64.0, 0.0, 0.0, 0.0, 0.0, 0.0, 0.0, 0.0, 0.0, 0.0, 0.0, 0.0, 1, 204, 0, 1.05, 0.95, 1.04, 0.96, 33, 0, 0.0, 0.0, 0.0
1.02, 26.0
0 / END OF TRANSFORMER DATA, BEGIN AREA DATA
0 / END OF AREA DATA, BEGIN TWO-TERMINAL DC DATA
"DCTEST2     ",2,   5.0000,   200.00,   400.00,   0.0000,  0.00000,  0.00000,'I',     0.00,  20,  1.00000
     1,  1, 15.000, 10.000, 0.0000, 5.0000, 200.00,1.00000,1.00000,1.10000,0.90000,0.00625,     0,  0,     0,     0,'1 ', 0.0000
     2,  1, 15.000, 10.000, 0.0000, 5.0000, 200.00,1.00000,1.00000,1.10000,0.90000,0.00625,     0,  0,     0,     0,'1 ', 0.0000
0 / END OF TWO-TERMINAL DC DATA, BEGIN VSC DC LINE DATA
0 / END OF VSC DC LINE DATA, BEGIN IMPEDANCE CORRECTION DATA
0 / END OF IMPEDANCE CORRECTION DATA, BEGIN MULTI-TERMINAL DC DATA
0 / END OF MULTI-TERMINAL DC DATA, BEGIN MULTI-SECTION LINE DATA
0 / END OF MULTI-SECTION LINE DATA, BEGIN ZONE DATA
0 / END OF ZONE DATA, BEGIN INTER-AREA TRANSFER DATA
0 / END OF INTER-AREA TRANSFER DATA, BEGIN OWNER DATA
0 / END OF OWNER DATA, BEGIN FACTS DEVICE DATA
0 / END OF FACTS DEVICE DATA, BEGIN SWITCHED SHUNT DATA
0 / END OF SWITCHED SHUNT DATA, BEGIN GNE DATA
0 / END OF GNE DATA, BEGIN INDUCTION MACHINE DATA
0 / END OF INDUCTION MACHINE DATA, BEGIN SUBSTATION DATA
0 / END OF SUBSTATION DATA
Q
